  
       XFOIL         Version 6.99
  
 Calculated polar for: NACA 0012                                       
  
 1 1 Reynolds number fixed          Mach number fixed         
  
 xtrf =   1.000 (top)        1.000 (bottom)  
 Mach =   0.150     Re =     6.000 e 6     Ncrit =   9.000
  
   alpha    CL        CD       CDp       CM     Top_Xtr  Bot_Xtr
  ------ -------- --------- --------- -------- -------- --------
 -20.000  -1.6946   0.05961   0.05668  -0.0290   1.0000   0.0062
 -19.000  -1.7399   0.04110   0.03779  -0.0363   1.0000   0.0063
 -18.000  -1.7431   0.02996   0.02633  -0.0370   1.0000   0.0066
 -17.000  -1.7200   0.02351   0.01964  -0.0324   1.0000   0.0071
 -16.000  -1.6754   0.01988   0.01582  -0.0251   1.0000   0.0075
 -15.000  -1.6159   0.01740   0.01319  -0.0172   1.0000   0.0080
 -14.000  -1.5324   0.01540   0.01109  -0.0126   1.0000   0.0089
 -13.000  -1.4403   0.01370   0.00930  -0.0089   1.0000   0.0100
 -12.000  -1.3426   0.01230   0.00785  -0.0060   1.0000   0.0112
 -11.000  -1.2457   0.01112   0.00664  -0.0025   1.0000   0.0126
 -10.000  -1.1414   0.01002   0.00554  -0.0006   0.9992   0.0149
  -9.000  -1.0155   0.00899   0.00454  -0.0032   0.9963   0.0182
  -8.000  -0.8974   0.00814   0.00372  -0.0040   0.9838   0.0230
  -7.000  -0.7904   0.00746   0.00304  -0.0022   0.9535   0.0301
  -6.000  -0.6802   0.00688   0.00243  -0.0011   0.9060   0.0419
  -5.000  -0.5683   0.00640   0.00190  -0.0005   0.8408   0.0633
  -4.000  -0.4556   0.00600   0.00146  -0.0001   0.7574   0.1017
  -3.000  -0.3424   0.00565   0.00112   0.0001   0.6706   0.1607
  -2.000  -0.2286   0.00536   0.00087   0.0002   0.5834   0.2373
  -1.000  -0.1146   0.00517   0.00073   0.0001   0.4962   0.3237
   0.000  -0.0000   0.00512   0.00069   0.0000   0.4097   0.4088
   0.000  -0.0000   0.00512   0.00069   0.0000   0.4097   0.4088
   1.000   0.1145   0.00517   0.00073  -0.0001   0.3240   0.4956
   2.000   0.2286   0.00536   0.00087  -0.0002   0.2385   0.5816
   3.000   0.3423   0.00565   0.00112  -0.0001   0.1611   0.6694
   4.000   0.4554   0.00600   0.00146   0.0001   0.1014   0.7591
   5.000   0.5682   0.00640   0.00190   0.0005   0.0639   0.8400
   6.000   0.6801   0.00688   0.00243   0.0011   0.0420   0.9067
   7.000   0.7903   0.00746   0.00304   0.0022   0.0300   0.9537
   8.000   0.8974   0.00813   0.00372   0.0040   0.0231   0.9838
   9.000   1.0155   0.00899   0.00454   0.0032   0.0184   0.9963
  10.000   1.1414   0.01002   0.00553   0.0006   0.0149   0.9992
  11.000   1.2457   0.01112   0.00663   0.0025   0.0126   1.0000
  12.000   1.3426   0.01231   0.00785   0.0060   0.0111   1.0000
  13.000   1.4403   0.01370   0.00930   0.0089   0.0099   1.0000
  14.000   1.5325   0.01540   0.01109   0.0125   0.0089   1.0000
  15.000   1.6161   0.01740   0.01319   0.0172   0.0081   1.0000
  16.000   1.6757   0.01990   0.01584   0.0251   0.0075   1.0000
  17.000   1.7207   0.02352   0.01965   0.0323   0.0071   1.0000
  18.000   1.7448   0.02990   0.02627   0.0368   0.0066   1.0000
  19.000   1.7409   0.04114   0.03783   0.0361   0.0063   1.0000
  20.000   1.6977   0.05943   0.05649   0.0288   0.0062   1.0000
