  
       XFOIL         Version 6.99
  
 Calculated polar for: FX 67-K-170/17 AIRFOIL                          
  
 1 1 Reynolds number fixed          Mach number fixed         
  
 xtrf =   1.000 (top)        1.000 (bottom)  
 Mach =   0.000     Re =     0.000 e 6     Ncrit =   9.000
  
   alpha    CL        CD       CDp       CM     Top_Xtr  Bot_Xtr
  ------ -------- --------- --------- -------- -------- --------
   4.156  68.5092   0.00000  -0.64962  -9.5020   0.0000   0.0000
